*SPEF "ieee 1481-1999"
*DESIGN "user_project_wrapper"
*DATE "11:11:11 Fri 11 11, 1111"
*VENDOR "OpenRCX"
*PROGRAM "Parallel Extraction"
*VERSION "1.0"
*DESIGN_FLOW "NAME_SCOPE LOCAL" "PIN_CAP NONE"
*DIVIDER /
*DELIMITER :
*BUS_DELIMITER []
*T_UNIT 1 NS
*C_UNIT 1 PF
*R_UNIT 1 OHM
*L_UNIT 1 HENRY

*NAME_MAP
*1 io_in[0]
*2 io_in[10]
*3 io_in[11]
*4 io_in[12]
*5 io_in[13]
*6 io_in[14]
*7 io_in[15]
*8 io_in[16]
*9 io_in[17]
*10 io_in[18]
*11 io_in[19]
*12 io_in[1]
*13 io_in[20]
*14 io_in[21]
*15 io_in[22]
*16 io_in[23]
*17 io_in[24]
*18 io_in[25]
*19 io_in[26]
*20 io_in[27]
*21 io_in[28]
*22 io_in[29]
*23 io_in[2]
*24 io_in[30]
*25 io_in[31]
*26 io_in[32]
*27 io_in[33]
*28 io_in[34]
*29 io_in[35]
*30 io_in[36]
*31 io_in[37]
*32 io_in[3]
*33 io_in[4]
*34 io_in[5]
*35 io_in[6]
*36 io_in[7]
*37 io_in[8]
*38 io_in[9]
*39 io_oeb[0]
*40 io_oeb[10]
*41 io_oeb[11]
*42 io_oeb[12]
*43 io_oeb[13]
*44 io_oeb[14]
*45 io_oeb[15]
*46 io_oeb[16]
*47 io_oeb[17]
*48 io_oeb[18]
*49 io_oeb[19]
*50 io_oeb[1]
*51 io_oeb[20]
*52 io_oeb[21]
*53 io_oeb[22]
*54 io_oeb[23]
*55 io_oeb[24]
*56 io_oeb[25]
*57 io_oeb[26]
*58 io_oeb[27]
*59 io_oeb[28]
*60 io_oeb[29]
*61 io_oeb[2]
*62 io_oeb[30]
*63 io_oeb[31]
*64 io_oeb[32]
*65 io_oeb[33]
*66 io_oeb[34]
*67 io_oeb[35]
*68 io_oeb[36]
*69 io_oeb[37]
*70 io_oeb[3]
*71 io_oeb[4]
*72 io_oeb[5]
*73 io_oeb[6]
*74 io_oeb[7]
*75 io_oeb[8]
*76 io_oeb[9]
*77 io_out[0]
*78 io_out[10]
*79 io_out[11]
*80 io_out[12]
*81 io_out[13]
*82 io_out[14]
*83 io_out[15]
*84 io_out[16]
*85 io_out[17]
*86 io_out[18]
*87 io_out[19]
*88 io_out[1]
*89 io_out[20]
*90 io_out[21]
*91 io_out[22]
*92 io_out[23]
*93 io_out[24]
*94 io_out[25]
*95 io_out[26]
*96 io_out[27]
*97 io_out[28]
*98 io_out[29]
*99 io_out[2]
*100 io_out[30]
*101 io_out[31]
*102 io_out[32]
*103 io_out[33]
*104 io_out[34]
*105 io_out[35]
*106 io_out[36]
*107 io_out[37]
*108 io_out[3]
*109 io_out[4]
*110 io_out[5]
*111 io_out[6]
*112 io_out[7]
*113 io_out[8]
*114 io_out[9]
*115 la_data_in[0]
*116 la_data_in[10]
*117 la_data_in[11]
*118 la_data_in[12]
*119 la_data_in[13]
*120 la_data_in[14]
*121 la_data_in[15]
*122 la_data_in[16]
*123 la_data_in[17]
*124 la_data_in[18]
*125 la_data_in[19]
*126 la_data_in[1]
*127 la_data_in[20]
*128 la_data_in[21]
*129 la_data_in[22]
*130 la_data_in[23]
*131 la_data_in[24]
*132 la_data_in[25]
*133 la_data_in[26]
*134 la_data_in[27]
*135 la_data_in[28]
*136 la_data_in[29]
*137 la_data_in[2]
*138 la_data_in[30]
*139 la_data_in[31]
*140 la_data_in[32]
*141 la_data_in[33]
*142 la_data_in[34]
*143 la_data_in[35]
*144 la_data_in[36]
*145 la_data_in[37]
*146 la_data_in[38]
*147 la_data_in[39]
*148 la_data_in[3]
*149 la_data_in[40]
*150 la_data_in[41]
*151 la_data_in[42]
*152 la_data_in[43]
*153 la_data_in[44]
*154 la_data_in[45]
*155 la_data_in[46]
*156 la_data_in[47]
*157 la_data_in[48]
*158 la_data_in[49]
*159 la_data_in[4]
*160 la_data_in[50]
*161 la_data_in[51]
*162 la_data_in[52]
*163 la_data_in[53]
*164 la_data_in[54]
*165 la_data_in[55]
*166 la_data_in[56]
*167 la_data_in[57]
*168 la_data_in[58]
*169 la_data_in[59]
*170 la_data_in[5]
*171 la_data_in[60]
*172 la_data_in[61]
*173 la_data_in[62]
*174 la_data_in[63]
*175 la_data_in[6]
*176 la_data_in[7]
*177 la_data_in[8]
*178 la_data_in[9]
*179 la_data_out[0]
*180 la_data_out[10]
*181 la_data_out[11]
*182 la_data_out[12]
*183 la_data_out[13]
*184 la_data_out[14]
*185 la_data_out[15]
*186 la_data_out[16]
*187 la_data_out[17]
*188 la_data_out[18]
*189 la_data_out[19]
*190 la_data_out[1]
*191 la_data_out[20]
*192 la_data_out[21]
*193 la_data_out[22]
*194 la_data_out[23]
*195 la_data_out[24]
*196 la_data_out[25]
*197 la_data_out[26]
*198 la_data_out[27]
*199 la_data_out[28]
*200 la_data_out[29]
*201 la_data_out[2]
*202 la_data_out[30]
*203 la_data_out[31]
*204 la_data_out[32]
*205 la_data_out[33]
*206 la_data_out[34]
*207 la_data_out[35]
*208 la_data_out[36]
*209 la_data_out[37]
*210 la_data_out[38]
*211 la_data_out[39]
*212 la_data_out[3]
*213 la_data_out[40]
*214 la_data_out[41]
*215 la_data_out[42]
*216 la_data_out[43]
*217 la_data_out[44]
*218 la_data_out[45]
*219 la_data_out[46]
*220 la_data_out[47]
*221 la_data_out[48]
*222 la_data_out[49]
*223 la_data_out[4]
*224 la_data_out[50]
*225 la_data_out[51]
*226 la_data_out[52]
*227 la_data_out[53]
*228 la_data_out[54]
*229 la_data_out[55]
*230 la_data_out[56]
*231 la_data_out[57]
*232 la_data_out[58]
*233 la_data_out[59]
*234 la_data_out[5]
*235 la_data_out[60]
*236 la_data_out[61]
*237 la_data_out[62]
*238 la_data_out[63]
*239 la_data_out[6]
*240 la_data_out[7]
*241 la_data_out[8]
*242 la_data_out[9]
*243 la_oenb[0]
*244 la_oenb[10]
*245 la_oenb[11]
*246 la_oenb[12]
*247 la_oenb[13]
*248 la_oenb[14]
*249 la_oenb[15]
*250 la_oenb[16]
*251 la_oenb[17]
*252 la_oenb[18]
*253 la_oenb[19]
*254 la_oenb[1]
*255 la_oenb[20]
*256 la_oenb[21]
*257 la_oenb[22]
*258 la_oenb[23]
*259 la_oenb[24]
*260 la_oenb[25]
*261 la_oenb[26]
*262 la_oenb[27]
*263 la_oenb[28]
*264 la_oenb[29]
*265 la_oenb[2]
*266 la_oenb[30]
*267 la_oenb[31]
*268 la_oenb[32]
*269 la_oenb[33]
*270 la_oenb[34]
*271 la_oenb[35]
*272 la_oenb[36]
*273 la_oenb[37]
*274 la_oenb[38]
*275 la_oenb[39]
*276 la_oenb[3]
*277 la_oenb[40]
*278 la_oenb[41]
*279 la_oenb[42]
*280 la_oenb[43]
*281 la_oenb[44]
*282 la_oenb[45]
*283 la_oenb[46]
*284 la_oenb[47]
*285 la_oenb[48]
*286 la_oenb[49]
*287 la_oenb[4]
*288 la_oenb[50]
*289 la_oenb[51]
*290 la_oenb[52]
*291 la_oenb[53]
*292 la_oenb[54]
*293 la_oenb[55]
*294 la_oenb[56]
*295 la_oenb[57]
*296 la_oenb[58]
*297 la_oenb[59]
*298 la_oenb[5]
*299 la_oenb[60]
*300 la_oenb[61]
*301 la_oenb[62]
*302 la_oenb[63]
*303 la_oenb[6]
*304 la_oenb[7]
*305 la_oenb[8]
*306 la_oenb[9]
*307 user_clock2
*308 user_irq[0]
*309 user_irq[1]
*310 user_irq[2]
*313 wb_clk_i
*314 wb_rst_i
*315 wbs_ack_o
*316 wbs_adr_i[0]
*317 wbs_adr_i[10]
*318 wbs_adr_i[11]
*319 wbs_adr_i[12]
*320 wbs_adr_i[13]
*321 wbs_adr_i[14]
*322 wbs_adr_i[15]
*323 wbs_adr_i[16]
*324 wbs_adr_i[17]
*325 wbs_adr_i[18]
*326 wbs_adr_i[19]
*327 wbs_adr_i[1]
*328 wbs_adr_i[20]
*329 wbs_adr_i[21]
*330 wbs_adr_i[22]
*331 wbs_adr_i[23]
*332 wbs_adr_i[24]
*333 wbs_adr_i[25]
*334 wbs_adr_i[26]
*335 wbs_adr_i[27]
*336 wbs_adr_i[28]
*337 wbs_adr_i[29]
*338 wbs_adr_i[2]
*339 wbs_adr_i[30]
*340 wbs_adr_i[31]
*341 wbs_adr_i[3]
*342 wbs_adr_i[4]
*343 wbs_adr_i[5]
*344 wbs_adr_i[6]
*345 wbs_adr_i[7]
*346 wbs_adr_i[8]
*347 wbs_adr_i[9]
*348 wbs_cyc_i
*349 wbs_dat_i[0]
*350 wbs_dat_i[10]
*351 wbs_dat_i[11]
*352 wbs_dat_i[12]
*353 wbs_dat_i[13]
*354 wbs_dat_i[14]
*355 wbs_dat_i[15]
*356 wbs_dat_i[16]
*357 wbs_dat_i[17]
*358 wbs_dat_i[18]
*359 wbs_dat_i[19]
*360 wbs_dat_i[1]
*361 wbs_dat_i[20]
*362 wbs_dat_i[21]
*363 wbs_dat_i[22]
*364 wbs_dat_i[23]
*365 wbs_dat_i[24]
*366 wbs_dat_i[25]
*367 wbs_dat_i[26]
*368 wbs_dat_i[27]
*369 wbs_dat_i[28]
*370 wbs_dat_i[29]
*371 wbs_dat_i[2]
*372 wbs_dat_i[30]
*373 wbs_dat_i[31]
*374 wbs_dat_i[3]
*375 wbs_dat_i[4]
*376 wbs_dat_i[5]
*377 wbs_dat_i[6]
*378 wbs_dat_i[7]
*379 wbs_dat_i[8]
*380 wbs_dat_i[9]
*381 wbs_dat_o[0]
*382 wbs_dat_o[10]
*383 wbs_dat_o[11]
*384 wbs_dat_o[12]
*385 wbs_dat_o[13]
*386 wbs_dat_o[14]
*387 wbs_dat_o[15]
*388 wbs_dat_o[16]
*389 wbs_dat_o[17]
*390 wbs_dat_o[18]
*391 wbs_dat_o[19]
*392 wbs_dat_o[1]
*393 wbs_dat_o[20]
*394 wbs_dat_o[21]
*395 wbs_dat_o[22]
*396 wbs_dat_o[23]
*397 wbs_dat_o[24]
*398 wbs_dat_o[25]
*399 wbs_dat_o[26]
*400 wbs_dat_o[27]
*401 wbs_dat_o[28]
*402 wbs_dat_o[29]
*403 wbs_dat_o[2]
*404 wbs_dat_o[30]
*405 wbs_dat_o[31]
*406 wbs_dat_o[3]
*407 wbs_dat_o[4]
*408 wbs_dat_o[5]
*409 wbs_dat_o[6]
*410 wbs_dat_o[7]
*411 wbs_dat_o[8]
*412 wbs_dat_o[9]
*413 wbs_sel_i[0]
*414 wbs_sel_i[1]
*415 wbs_sel_i[2]
*416 wbs_sel_i[3]
*417 wbs_stb_i
*418 wbs_we_i
*419 rc4_1

*PORTS
io_in[0] I
io_in[10] I
io_in[11] I
io_in[12] I
io_in[13] I
io_in[14] I
io_in[15] I
io_in[16] I
io_in[17] I
io_in[18] I
io_in[19] I
io_in[1] I
io_in[20] I
io_in[21] I
io_in[22] I
io_in[23] I
io_in[24] I
io_in[25] I
io_in[26] I
io_in[27] I
io_in[28] I
io_in[29] I
io_in[2] I
io_in[30] I
io_in[31] I
io_in[32] I
io_in[33] I
io_in[34] I
io_in[35] I
io_in[36] I
io_in[37] I
io_in[3] I
io_in[4] I
io_in[5] I
io_in[6] I
io_in[7] I
io_in[8] I
io_in[9] I
io_oeb[0] O
io_oeb[10] O
io_oeb[11] O
io_oeb[12] O
io_oeb[13] O
io_oeb[14] O
io_oeb[15] O
io_oeb[16] O
io_oeb[17] O
io_oeb[18] O
io_oeb[19] O
io_oeb[1] O
io_oeb[20] O
io_oeb[21] O
io_oeb[22] O
io_oeb[23] O
io_oeb[24] O
io_oeb[25] O
io_oeb[26] O
io_oeb[27] O
io_oeb[28] O
io_oeb[29] O
io_oeb[2] O
io_oeb[30] O
io_oeb[31] O
io_oeb[32] O
io_oeb[33] O
io_oeb[34] O
io_oeb[35] O
io_oeb[36] O
io_oeb[37] O
io_oeb[3] O
io_oeb[4] O
io_oeb[5] O
io_oeb[6] O
io_oeb[7] O
io_oeb[8] O
io_oeb[9] O
io_out[0] O
io_out[10] O
io_out[11] O
io_out[12] O
io_out[13] O
io_out[14] O
io_out[15] O
io_out[16] O
io_out[17] O
io_out[18] O
io_out[19] O
io_out[1] O
io_out[20] O
io_out[21] O
io_out[22] O
io_out[23] O
io_out[24] O
io_out[25] O
io_out[26] O
io_out[27] O
io_out[28] O
io_out[29] O
io_out[2] O
io_out[30] O
io_out[31] O
io_out[32] O
io_out[33] O
io_out[34] O
io_out[35] O
io_out[36] O
io_out[37] O
io_out[3] O
io_out[4] O
io_out[5] O
io_out[6] O
io_out[7] O
io_out[8] O
io_out[9] O
la_data_in[0] I
la_data_in[10] I
la_data_in[11] I
la_data_in[12] I
la_data_in[13] I
la_data_in[14] I
la_data_in[15] I
la_data_in[16] I
la_data_in[17] I
la_data_in[18] I
la_data_in[19] I
la_data_in[1] I
la_data_in[20] I
la_data_in[21] I
la_data_in[22] I
la_data_in[23] I
la_data_in[24] I
la_data_in[25] I
la_data_in[26] I
la_data_in[27] I
la_data_in[28] I
la_data_in[29] I
la_data_in[2] I
la_data_in[30] I
la_data_in[31] I
la_data_in[32] I
la_data_in[33] I
la_data_in[34] I
la_data_in[35] I
la_data_in[36] I
la_data_in[37] I
la_data_in[38] I
la_data_in[39] I
la_data_in[3] I
la_data_in[40] I
la_data_in[41] I
la_data_in[42] I
la_data_in[43] I
la_data_in[44] I
la_data_in[45] I
la_data_in[46] I
la_data_in[47] I
la_data_in[48] I
la_data_in[49] I
la_data_in[4] I
la_data_in[50] I
la_data_in[51] I
la_data_in[52] I
la_data_in[53] I
la_data_in[54] I
la_data_in[55] I
la_data_in[56] I
la_data_in[57] I
la_data_in[58] I
la_data_in[59] I
la_data_in[5] I
la_data_in[60] I
la_data_in[61] I
la_data_in[62] I
la_data_in[63] I
la_data_in[6] I
la_data_in[7] I
la_data_in[8] I
la_data_in[9] I
la_data_out[0] O
la_data_out[10] O
la_data_out[11] O
la_data_out[12] O
la_data_out[13] O
la_data_out[14] O
la_data_out[15] O
la_data_out[16] O
la_data_out[17] O
la_data_out[18] O
la_data_out[19] O
la_data_out[1] O
la_data_out[20] O
la_data_out[21] O
la_data_out[22] O
la_data_out[23] O
la_data_out[24] O
la_data_out[25] O
la_data_out[26] O
la_data_out[27] O
la_data_out[28] O
la_data_out[29] O
la_data_out[2] O
la_data_out[30] O
la_data_out[31] O
la_data_out[32] O
la_data_out[33] O
la_data_out[34] O
la_data_out[35] O
la_data_out[36] O
la_data_out[37] O
la_data_out[38] O
la_data_out[39] O
la_data_out[3] O
la_data_out[40] O
la_data_out[41] O
la_data_out[42] O
la_data_out[43] O
la_data_out[44] O
la_data_out[45] O
la_data_out[46] O
la_data_out[47] O
la_data_out[48] O
la_data_out[49] O
la_data_out[4] O
la_data_out[50] O
la_data_out[51] O
la_data_out[52] O
la_data_out[53] O
la_data_out[54] O
la_data_out[55] O
la_data_out[56] O
la_data_out[57] O
la_data_out[58] O
la_data_out[59] O
la_data_out[5] O
la_data_out[60] O
la_data_out[61] O
la_data_out[62] O
la_data_out[63] O
la_data_out[6] O
la_data_out[7] O
la_data_out[8] O
la_data_out[9] O
la_oenb[0] I
la_oenb[10] I
la_oenb[11] I
la_oenb[12] I
la_oenb[13] I
la_oenb[14] I
la_oenb[15] I
la_oenb[16] I
la_oenb[17] I
la_oenb[18] I
la_oenb[19] I
la_oenb[1] I
la_oenb[20] I
la_oenb[21] I
la_oenb[22] I
la_oenb[23] I
la_oenb[24] I
la_oenb[25] I
la_oenb[26] I
la_oenb[27] I
la_oenb[28] I
la_oenb[29] I
la_oenb[2] I
la_oenb[30] I
la_oenb[31] I
la_oenb[32] I
la_oenb[33] I
la_oenb[34] I
la_oenb[35] I
la_oenb[36] I
la_oenb[37] I
la_oenb[38] I
la_oenb[39] I
la_oenb[3] I
la_oenb[40] I
la_oenb[41] I
la_oenb[42] I
la_oenb[43] I
la_oenb[44] I
la_oenb[45] I
la_oenb[46] I
la_oenb[47] I
la_oenb[48] I
la_oenb[49] I
la_oenb[4] I
la_oenb[50] I
la_oenb[51] I
la_oenb[52] I
la_oenb[53] I
la_oenb[54] I
la_oenb[55] I
la_oenb[56] I
la_oenb[57] I
la_oenb[58] I
la_oenb[59] I
la_oenb[5] I
la_oenb[60] I
la_oenb[61] I
la_oenb[62] I
la_oenb[63] I
la_oenb[6] I
la_oenb[7] I
la_oenb[8] I
la_oenb[9] I
user_clock2 I
user_irq[0] O
user_irq[1] O
user_irq[2] O
wb_clk_i I
wb_rst_i I
wbs_ack_o O
wbs_adr_i[0] I
wbs_adr_i[10] I
wbs_adr_i[11] I
wbs_adr_i[12] I
wbs_adr_i[13] I
wbs_adr_i[14] I
wbs_adr_i[15] I
wbs_adr_i[16] I
wbs_adr_i[17] I
wbs_adr_i[18] I
wbs_adr_i[19] I
wbs_adr_i[1] I
wbs_adr_i[20] I
wbs_adr_i[21] I
wbs_adr_i[22] I
wbs_adr_i[23] I
wbs_adr_i[24] I
wbs_adr_i[25] I
wbs_adr_i[26] I
wbs_adr_i[27] I
wbs_adr_i[28] I
wbs_adr_i[29] I
wbs_adr_i[2] I
wbs_adr_i[30] I
wbs_adr_i[31] I
wbs_adr_i[3] I
wbs_adr_i[4] I
wbs_adr_i[5] I
wbs_adr_i[6] I
wbs_adr_i[7] I
wbs_adr_i[8] I
wbs_adr_i[9] I
wbs_cyc_i I
wbs_dat_i[0] I
wbs_dat_i[10] I
wbs_dat_i[11] I
wbs_dat_i[12] I
wbs_dat_i[13] I
wbs_dat_i[14] I
wbs_dat_i[15] I
wbs_dat_i[16] I
wbs_dat_i[17] I
wbs_dat_i[18] I
wbs_dat_i[19] I
wbs_dat_i[1] I
wbs_dat_i[20] I
wbs_dat_i[21] I
wbs_dat_i[22] I
wbs_dat_i[23] I
wbs_dat_i[24] I
wbs_dat_i[25] I
wbs_dat_i[26] I
wbs_dat_i[27] I
wbs_dat_i[28] I
wbs_dat_i[29] I
wbs_dat_i[2] I
wbs_dat_i[30] I
wbs_dat_i[31] I
wbs_dat_i[3] I
wbs_dat_i[4] I
wbs_dat_i[5] I
wbs_dat_i[6] I
wbs_dat_i[7] I
wbs_dat_i[8] I
wbs_dat_i[9] I
wbs_dat_o[0] O
wbs_dat_o[10] O
wbs_dat_o[11] O
wbs_dat_o[12] O
wbs_dat_o[13] O
wbs_dat_o[14] O
wbs_dat_o[15] O
wbs_dat_o[16] O
wbs_dat_o[17] O
wbs_dat_o[18] O
wbs_dat_o[19] O
wbs_dat_o[1] O
wbs_dat_o[20] O
wbs_dat_o[21] O
wbs_dat_o[22] O
wbs_dat_o[23] O
wbs_dat_o[24] O
wbs_dat_o[25] O
wbs_dat_o[26] O
wbs_dat_o[27] O
wbs_dat_o[28] O
wbs_dat_o[29] O
wbs_dat_o[2] O
wbs_dat_o[30] O
wbs_dat_o[31] O
wbs_dat_o[3] O
wbs_dat_o[4] O
wbs_dat_o[5] O
wbs_dat_o[6] O
wbs_dat_o[7] O
wbs_dat_o[8] O
wbs_dat_o[9] O
wbs_sel_i[0] I
wbs_sel_i[1] I
wbs_sel_i[2] I
wbs_sel_i[3] I
wbs_stb_i I
wbs_we_i I

*D_NET *1 0.184408
*CONN
*P io_in[0] I
*I *419:io_in[0] I *D wrapped_rc4
*CAP
1 io_in[0] 0.0124058
2 *419:io_in[0] 0.000884681
3 *1:8 0.0729181
4 *1:7 0.0720334
5 *1:5 0.0124058
6 *1:8 *17:14 0
7 *1:8 *21:14 0.000923705
8 *1:8 *107:8 0
9 *1:8 *314:11 0.0128367
*RES
1 io_in[0] *1:5 136.125 
2 *1:5 *1:7 4.5 
3 *1:7 *1:8 782.73 
4 *1:8 *419:io_in[0] 12.825 
*END

*D_NET *2 0.111455
*CONN
*P io_in[10] I
*I *419:io_in[10] I *D wrapped_rc4
*CAP
1 io_in[10] 0.0055887
2 *419:io_in[10] 0.00140976
3 *2:11 0.00800103
4 *2:10 0.00659127
5 *2:8 0.0421378
6 *2:7 0.0421378
7 *2:5 0.0055887
8 *2:8 *109:68 0
*RES
1 io_in[10] *2:5 60.525 
2 *2:5 *2:7 4.5 
3 *2:7 *2:8 421.29 
4 *2:8 *2:10 4.5 
5 *2:10 *2:11 71.64 
6 *2:11 *419:io_in[10] 14.265 
*END

*D_NET *3 0.600402
*CONN
*P io_in[11] I
*I *419:io_in[11] I *D wrapped_rc4
*CAP
1 io_in[11] 0.000637361
2 *419:io_in[11] 0.00051814
3 *3:17 0.00123434
4 *3:16 0.000924072
5 *3:11 0.0244777
6 *3:10 0.0242699
7 *3:8 0.00734685
8 *3:7 0.00798421
9 *3:8 io_out[11] 0.0215429
10 *3:8 *4:8 0.0259619
11 *3:11 *13:12 0.28368
12 *3:11 *20:11 0.0488654
13 *3:11 *24:11 0.0151142
14 *3:11 *32:19 0.00280074
15 *3:11 *35:19 0.00746968
16 *3:11 *38:15 0.0292211
17 *3:11 *112:8 0
18 *3:17 *97:10 0.0491763
19 *3:17 *100:10 0.0491763
*RES
1 io_in[11] *3:7 11.025 
2 *3:7 *3:8 104.31 
3 *3:8 *3:10 4.5 
4 *3:10 *3:11 758.97 
5 *3:11 *3:16 10.89 
6 *3:16 *3:17 71.19 
7 *3:17 *419:io_in[11] 9.225 
*END

*D_NET *4 0.977727
*CONN
*P io_in[12] I
*I *419:io_in[12] I *D wrapped_rc4
*CAP
1 io_in[12] 0.00274939
2 *419:io_in[12] 0.000883426
3 *4:18 0.0201432
4 *4:17 0.0196576
5 *4:11 0.0243824
6 *4:10 0.0239845
7 *4:8 0.00274939
8 *4:11 *21:11 0.5318
9 *4:11 *32:19 0.00145477
10 *4:11 *35:19 9.32547e-05
11 *4:11 *79:23 0.0787599
12 *4:17 *21:11 0.00219666
13 *4:17 *24:11 0.000671433
14 *4:17 *79:23 0.00109419
15 *4:17 *89:16 0.00478696
16 *4:18 *8:19 0.236358
17 *3:8 *4:8 0.0259619
*RES
1 io_in[12] *4:8 48.915 
2 *4:8 *4:10 4.5 
3 *4:10 *4:11 900.72 
4 *4:11 *4:17 21.33 
5 *4:17 *4:18 346.59 
6 *4:18 *419:io_in[12] 13.005 
*END

*D_NET *5 0.116031
*CONN
*P io_in[13] I
*I *419:io_in[13] I *D wrapped_rc4
*CAP
1 io_in[13] 0.000145659
2 *419:io_in[13] 0.00124584
3 *5:19 0.00975973
4 *5:18 0.00997774
5 *5:13 0.00651841
6 *5:11 0.00520022
7 *5:19 *6:15 0.0619833
8 *5:19 *81:11 0.0180292
9 *5:19 *86:20 0.00317066
*RES
1 io_in[13] *5:11 1.575 
2 *5:11 *5:13 55.17 
3 *5:13 *5:18 23.67 
4 *5:18 *5:19 168.03 
5 *5:19 *419:io_in[13] 15.885 
*END

*D_NET *6 0.291243
*CONN
*P io_in[14] I
*I *419:io_in[14] I *D wrapped_rc4
*CAP
1 io_in[14] 0.00173748
2 *419:io_in[14] 0.00122799
3 *6:15 0.00480486
4 *6:14 0.00357687
5 *6:12 0.00797142
6 *6:11 0.00797142
7 *6:9 0.0104982
8 *6:7 0.0122357
9 *6:15 *81:11 0.154492
10 *6:15 *86:20 0.0247435
11 *5:19 *6:15 0.0619833
*RES
1 io_in[14] *6:7 19.125 
2 *6:7 *6:9 114.84 
3 *6:9 *6:11 4.5 
4 *6:11 *6:12 79.65 
5 *6:12 *6:14 4.5 
6 *6:14 *6:15 223.65 
7 *6:15 *419:io_in[14] 15.705 
*END

*D_NET *7 0.888554
*CONN
*P io_in[15] I
*I *419:io_in[15] I *D wrapped_rc4
*CAP
1 io_in[15] 0.000671366
2 *419:io_in[15] 0.000328116
3 *7:17 0.00787952
4 *7:16 0.00770435
5 *7:11 0.0137723
6 *7:10 0.0136193
7 *7:8 0.0499381
8 *7:7 0.0506094
9 *7:8 io_out[15] 0.0175941
10 *7:8 *14:8 0.281443
11 *7:8 *85:11 0.0252823
12 *7:8 *89:20 0.0447
13 *7:8 *91:14 0.0396022
14 *7:11 io_out[23] 0
15 *7:11 *92:13 0
16 *7:16 *15:16 0.0015128
17 *7:16 *20:11 5.43985e-05
18 *7:16 *24:11 0.000982281
19 *7:17 *79:8 0.136929
20 *7:17 *87:8 0.00265962
21 *7:17 *114:8 0.193272
*RES
1 io_in[15] *7:7 11.025 
2 *7:7 *7:8 892.71 
3 *7:8 *7:10 4.5 
4 *7:10 *7:11 135.45 
5 *7:11 *7:16 16.11 
6 *7:16 *7:17 295.11 
7 *7:17 *419:io_in[15] 7.605 
*END

*D_NET *8 0.799555
*CONN
*P io_in[16] I
*I *419:io_in[16] I *D wrapped_rc4
*CAP
1 io_in[16] 0.000164983
2 *419:io_in[16] 0.000853253
3 *8:19 0.0509468
4 *8:18 0.0500936
5 *8:16 0.0534493
6 *8:15 0.0534493
7 *8:13 0.0128159
8 *8:11 0.0129809
9 *8:16 *10:67 0
10 *8:16 *11:16 0.328443
11 *8:19 *106:8 0
12 *4:18 *8:19 0.236358
*RES
1 io_in[16] *8:11 1.935 
2 *8:11 *8:13 128.07 
3 *8:13 *8:15 4.5 
4 *8:15 *8:16 796.77 
5 *8:16 *8:18 4.5 
6 *8:18 *8:19 654.57 
7 *8:19 *419:io_in[16] 12.825 
*END

*D_NET *9 0.358495
*CONN
*P io_in[17] I
*I *419:io_in[17] I *D wrapped_rc4
*CAP
1 io_in[17] 0.000291323
2 *419:io_in[17] 0.00093389
3 *9:16 0.021912
4 *9:15 0.0209781
5 *9:13 0.0136497
6 *9:11 0.013941
7 *9:13 *10:50 0
8 *9:16 *17:11 0.286789
*RES
1 io_in[17] *9:11 3.015 
2 *9:11 *9:13 135.99 
3 *9:13 *9:15 4.5 
4 *9:15 *9:16 415.17 
5 *9:16 *419:io_in[17] 13.005 
*END

*D_NET *10 1.13929
*CONN
*P io_in[18] I
*I *419:io_in[18] I *D wrapped_rc4
*CAP
1 io_in[18] 0.00328572
2 *419:io_in[18] 0.000346189
3 *10:74 0.00791481
4 *10:73 0.00756862
5 *10:71 0.293161
6 *10:70 0.293161
7 *10:68 0.00257934
8 *10:67 0.00460395
9 *10:61 0.00468295
10 *10:50 0.00685163
11 *10:46 0.00759404
12 *10:40 0.00778234
13 *10:37 0.00582277
14 *10:29 0.00535047
15 *10:22 0.00663689
16 *10:13 0.00601333
17 *10:68 *111:8 0.0353746
18 *10:68 *114:17 0
19 *10:71 *30:66 0.00034411
20 *10:74 *22:11 0.122578
21 *10:74 *29:17 0.0551446
22 *10:74 *78:8 0.00358097
23 *10:74 *99:8 0.0121853
24 *10:74 *108:8 0.23867
25 *10:74 *109:15 0.00806004
26 *8:16 *10:67 0
27 *9:13 *10:50 0
*RES
1 io_in[18] *10:13 46.485 
2 *10:13 *10:22 41.67 
3 *10:22 *10:29 48.51 
4 *10:29 *10:37 28.44 
5 *10:37 *10:40 47.43 
6 *10:40 *10:46 44.64 
7 *10:46 *10:50 47.88 
8 *10:50 *10:61 44.55 
9 *10:61 *10:67 28.8 
10 *10:67 *10:68 51.21 
11 *10:68 *10:70 4.5 
12 *10:70 *10:71 779.31 
13 *10:71 *10:73 4.5 
14 *10:73 *10:74 558.27 
15 *10:74 *419:io_in[18] 7.605 
*END

*D_NET *11 0.543199
*CONN
*P io_in[19] I
*I *419:io_in[19] I *D wrapped_rc4
*CAP
1 io_in[19] 0.000224243
2 *419:io_in[19] 0.00152909
3 *11:19 0.069737
4 *11:18 0.0682079
5 *11:16 0.0246162
6 *11:15 0.0246162
7 *11:13 0.0128007
8 *11:11 0.0130249
9 *11:19 *104:11 0
10 *8:16 *11:16 0.328443
*RES
1 io_in[19] *11:11 2.475 
2 *11:11 *11:13 127.89 
3 *11:13 *11:15 4.5 
4 *11:15 *11:16 480.87 
5 *11:16 *11:18 4.5 
6 *11:18 *11:19 681.93 
7 *11:19 *419:io_in[19] 18.225 
*END

*D_NET *12 0.160851
*CONN
*P io_in[1] I
*I *419:io_in[1] I *D wrapped_rc4
*CAP
1 io_in[1] 0.000280649
2 *419:io_in[1] 0.00144926
3 *12:16 0.0681343
4 *12:15 0.0666851
5 *12:13 0.0120107
6 *12:11 0.0122914
*RES
1 io_in[1] *12:11 2.655 
2 *12:11 *12:13 130.77 
3 *12:13 *12:15 4.5 
4 *12:15 *12:16 666.99 
5 *12:16 *419:io_in[1] 19.125 
*END

*D_NET *13 1.06223
*CONN
*P io_in[20] I
*I *419:io_in[20] I *D wrapped_rc4
*CAP
1 io_in[20] 0.00190932
2 *419:io_in[20] 0.000248047
3 *13:15 0.0289349
4 *13:14 0.0286868
5 *13:12 0.0197107
6 *13:11 0.0197107
7 *13:9 0.0123515
8 *13:7 0.0142608
9 *13:12 *20:11 0.00640338
10 *13:12 *84:16 0.0131178
11 *13:12 *100:10 0
12 *13:12 *112:8 0
13 *13:15 *26:60 0.0127078
14 *13:15 *84:11 0.510216
15 *13:15 *85:8 0.110292
16 *3:11 *13:12 0.28368
*RES
1 io_in[20] *13:7 18.945 
2 *13:7 *13:9 122.76 
3 *13:9 *13:11 4.5 
4 *13:11 *13:12 410.67 
5 *13:12 *13:14 4.5 
6 *13:14 *13:15 748.17 
7 *13:15 *419:io_in[20] 6.345 
*END

*D_NET *14 0.406011
*CONN
*P io_in[21] I
*I *419:io_in[21] I *D wrapped_rc4
*CAP
1 io_in[21] 0.000712402
2 *419:io_in[21] 0.000934609
3 *14:11 0.0140697
4 *14:10 0.0131351
5 *14:8 0.0171057
6 *14:7 0.0178181
7 *419:io_in[21] *17:11 5.28443e-05
8 *419:io_in[21] *114:17 0.00105689
9 *14:8 *85:11 0.010631
10 *14:8 *89:20 0.0490519
11 *7:8 *14:8 0.281443
*RES
1 io_in[21] *14:7 10.845 
2 *14:7 *14:8 407.43 
3 *14:8 *14:10 4.5 
4 *14:10 *14:11 130.95 
5 *14:11 *419:io_in[21] 18.405 
*END

*D_NET *15 0.307385
*CONN
*P io_in[22] I
*I *419:io_in[22] I *D wrapped_rc4
*CAP
1 io_in[22] 0.000290594
2 *419:io_in[22] 0.000251844
3 *15:19 0.00516839
4 *15:18 0.00491655
5 *15:16 0.00303329
6 *15:15 0.00303329
7 *15:13 0.0142579
8 *15:11 0.0145485
9 *15:16 *16:16 0.0295307
10 *15:16 *20:11 0.024329
11 *15:16 *24:11 0.0110227
12 *15:19 *16:19 0.0185559
13 *15:19 *87:8 0.164671
14 *15:19 *90:11 0.0122629
15 *7:16 *15:16 0.0015128
*RES
1 io_in[22] *15:11 3.015 
2 *15:11 *15:13 141.57 
3 *15:13 *15:15 4.5 
4 *15:15 *15:16 148.41 
5 *15:16 *15:18 4.5 
6 *15:18 *15:19 241.47 
7 *15:19 *419:io_in[22] 7.065 
*END

*D_NET *16 0.122198
*CONN
*P io_in[23] I
*I *419:io_in[23] I *D wrapped_rc4
*CAP
1 io_in[23] 0.000104982
2 *419:io_in[23] 0.000219993
3 *16:19 0.00195207
4 *16:18 0.00173208
5 *16:16 0.000418121
6 *16:13 0.0146418
7 *16:11 0.0143287
8 *16:16 *20:11 0.0295307
9 *16:19 *87:8 2.45503e-05
10 *16:19 *90:11 0.0111581
11 *15:16 *16:16 0.0295307
12 *15:19 *16:19 0.0185559
*RES
1 io_in[23] *16:11 1.395 
2 *16:11 *16:13 141.39 
3 *16:13 *16:16 47.25 
4 *16:16 *16:18 4.5 
5 *16:18 *16:19 81.81 
6 *16:19 *419:io_in[23] 6.705 
*END

*D_NET *17 0.611126
*CONN
*P io_in[24] I
*I *419:io_in[24] I *D wrapped_rc4
*CAP
1 io_in[24] 0.000611329
2 *419:io_in[24] 0.000730474
3 *17:14 0.0406707
4 *17:13 0.0399402
5 *17:11 0.0550903
6 *17:10 0.0550903
7 *17:8 0.0123175
8 *17:7 0.0129288
9 *17:11 *86:14 0.0519118
10 *17:11 *114:17 0
11 *17:14 *21:14 0.0365186
12 *17:14 *114:28 0
13 *17:14 *314:11 0.0184741
14 *419:io_in[21] *17:11 5.28443e-05
15 *1:8 *17:14 0
16 *9:16 *17:11 0.286789
*RES
1 io_in[24] *17:7 10.665 
2 *17:7 *17:8 123.03 
3 *17:8 *17:10 4.5 
4 *17:10 *17:11 819.63 
5 *17:11 *17:13 4.5 
6 *17:13 *17:14 433.71 
7 *17:14 *419:io_in[24] 11.565 
*END

*D_NET *18 0.445582
*CONN
*P io_in[25] I
*I *419:io_in[25] I *D wrapped_rc4
*CAP
1 io_in[25] 0.00113819
2 *419:io_in[25] 0.0035857
3 *18:8 0.0577488
4 *18:7 0.0553013
5 *18:8 *22:8 0.327808
*RES
1 io_in[25] *18:7 16.065 
2 *18:7 *18:8 755.01 
3 *18:8 *419:io_in[25] 41.085 
*END

*D_NET *19 0.0488079
*CONN
*P io_in[26] I
*I *419:io_in[26] I *D wrapped_rc4
*CAP
1 io_in[26] 0.00227922
2 *419:io_in[26] 0.00280865
3 *19:16 0.00552262
4 *19:15 0.00499319
5 *19:16 *100:13 0.0332043
*RES
1 io_in[26] *19:15 28.125 
2 *19:15 *19:16 48.69 
3 *19:16 *419:io_in[26] 32.535 
*END

*D_NET *20 0.2188
*CONN
*P io_in[27] I
*I *419:io_in[27] I *D wrapped_rc4
*CAP
1 io_in[27] 0.000671675
2 *419:io_in[27] 0.00051798
3 *20:11 0.0241371
4 *20:10 0.0236191
5 *20:8 0.00443671
6 *20:7 0.00510839
7 *20:8 *21:8 0.051126
8 *20:11 *24:11 0
9 *20:11 *97:10 0
10 *20:11 *100:10 0
11 *3:11 *20:11 0.0488654
12 *7:16 *20:11 5.43985e-05
13 *13:12 *20:11 0.00640338
14 *15:16 *20:11 0.024329
15 *16:16 *20:11 0.0295307
*RES
1 io_in[27] *20:7 11.025 
2 *20:7 *20:8 77.49 
3 *20:8 *20:10 4.5 
4 *20:10 *20:11 412.65 
5 *20:11 *419:io_in[27] 8.955 
*END

*D_NET *21 0.838107
*CONN
*P io_in[28] I
*I *419:io_in[28] I *D wrapped_rc4
*CAP
1 io_in[28] 0.000641502
2 *419:io_in[28] 0.000774894
3 *21:14 0.00334152
4 *21:13 0.00256663
5 *21:11 0.0432709
6 *21:10 0.0432709
7 *21:8 0.00399005
8 *21:7 0.00463155
9 *21:8 *96:17 0.0309947
10 *21:8 *98:17 0.077272
11 *21:11 *24:11 0
12 *21:11 *89:16 0.00478696
13 *1:8 *21:14 0.000923705
14 *4:11 *21:11 0.5318
15 *4:17 *21:11 0.00219666
16 *17:14 *21:14 0.0365186
17 *20:8 *21:8 0.051126
*RES
1 io_in[28] *21:7 10.845 
2 *21:7 *21:8 143.55 
3 *21:8 *21:10 4.5 
4 *21:10 *21:11 819.63 
5 *21:11 *21:13 4.5 
6 *21:13 *21:14 53.55 
7 *21:14 *419:io_in[28] 11.745 
*END

*D_NET *22 1.0893
*CONN
*P io_in[29] I
*I *419:io_in[29] I *D wrapped_rc4
*CAP
1 io_in[29] 0.0011826
2 *419:io_in[29] 0.000309112
3 *22:11 0.0150692
4 *22:10 0.0147601
5 *22:8 0.0344309
6 *22:7 0.0356135
7 *22:8 *26:20 0
8 *22:8 *101:35 0.00644445
9 *22:11 *25:11 0.351695
10 *22:11 *29:17 0.0110538
11 *22:11 *78:8 0.110351
12 *22:11 *88:11 0
13 *22:11 *95:8 0.0246192
14 *22:11 *96:8 0.0333852
15 *22:11 *99:14 0
16 *22:11 *314:8 0
17 *10:74 *22:11 0.122578
18 *18:8 *22:8 0.327808
*RES
1 io_in[29] *22:7 16.245 
2 *22:7 *22:8 561.69 
3 *22:8 *22:10 4.5 
4 *22:10 *22:11 781.11 
5 *22:11 *419:io_in[29] 7.245 
*END

*D_NET *23 0.0570706
*CONN
*P io_in[2] I
*I *419:io_in[2] I *D wrapped_rc4
*CAP
1 io_in[2] 0.000215438
2 *419:io_in[2] 0.00112354
3 *23:16 0.0160507
4 *23:15 0.0149271
5 *23:13 0.0122692
6 *23:11 0.0124846
7 *23:13 *109:51 0
8 *23:16 *107:8 0
*RES
1 io_in[2] *23:11 2.115 
2 *23:11 *23:13 133.47 
3 *23:13 *23:15 4.5 
4 *23:15 *23:16 149.31 
5 *23:16 *419:io_in[2] 15.525 
*END

*D_NET *24 0.236066
*CONN
*P io_in[30] I
*I *419:io_in[30] I *D wrapped_rc4
*CAP
1 io_in[30] 0.00182766
2 *419:io_in[30] 0.000357798
3 *24:11 0.0101694
4 *24:10 0.0098116
5 *24:8 0.0281989
6 *24:7 0.0300266
7 *24:8 *313:13 0
8 *24:11 *32:19 0.0730495
9 *24:11 *79:23 0.0548336
10 *3:11 *24:11 0.0151142
11 *4:17 *24:11 0.000671433
12 *7:16 *24:11 0.000982281
13 *15:16 *24:11 0.0110227
14 *20:11 *24:11 0
15 *21:11 *24:11 0
*RES
1 io_in[30] *24:7 21.465 
2 *24:7 *24:8 281.97 
3 *24:8 *24:10 4.5 
4 *24:10 *24:11 375.21 
5 *24:11 *419:io_in[30] 7.695 
*END

*D_NET *25 0.689189
*CONN
*P io_in[31] I
*I *419:io_in[31] I *D wrapped_rc4
*CAP
1 io_in[31] 0.0016793
2 *419:io_in[31] 0.000280968
3 *25:11 0.0179511
4 *25:10 0.0176701
5 *25:8 0.036385
6 *25:7 0.0380643
7 *25:8 *27:8 0.0933525
8 *25:8 *30:31 0
9 *25:8 *313:13 0
10 *25:11 *28:11 0.129002
11 *25:11 *88:11 0
12 *25:11 *104:8 0.00310848
13 *22:11 *25:11 0.351695
*RES
1 io_in[31] *25:7 21.465 
2 *25:7 *25:8 424.35 
3 *25:8 *25:10 4.5 
4 *25:10 *25:11 509.13 
5 *25:11 *419:io_in[31] 7.065 
*END

*D_NET *26 0.893895
*CONN
*P io_in[32] I
*I *419:io_in[32] I *D wrapped_rc4
*CAP
1 io_in[32] 0.000641502
2 *419:io_in[32] 0.000315091
3 *26:60 0.0349782
4 *26:59 0.0346631
5 *26:57 0.0398144
6 *26:56 0.0404525
7 *26:51 0.00353111
8 *26:38 0.00534452
9 *26:20 0.00528723
10 *26:8 0.01558
11 *26:7 0.0133857
12 *26:8 *29:10 0.00300741
13 *26:8 *101:44 0.203215
14 *26:8 *105:19 0.0483027
15 *26:20 io_out[36] 0.00254896
16 *26:20 *101:43 0.000230159
17 *26:20 *313:13 0
18 *26:38 *30:40 0
19 *26:38 *104:11 0
20 *26:51 *89:11 0
21 *26:51 *109:8 0.000193334
22 *26:56 *28:8 0.0107408
23 *26:56 *30:62 0.000196402
24 *26:56 *90:11 0.000736509
25 *26:56 *101:25 0.00693546
26 *26:56 *105:14 0
27 *26:57 *86:8 0.0613822
28 *26:57 *90:8 0.349705
29 *26:57 *314:8 0
30 *26:60 *84:11 0
31 *26:60 *101:13 0
32 *13:15 *26:60 0.0127078
33 *22:8 *26:20 0
*RES
1 io_in[32] *26:7 10.845 
2 *26:7 *26:8 299.43 
3 *26:8 *26:20 47.7 
4 *26:20 *26:38 47.52 
5 *26:38 *26:51 45.63 
6 *26:51 *26:56 27.99 
7 *26:56 *26:57 774.81 
8 *26:57 *26:59 4.5 
9 *26:59 *26:60 403.83 
10 *26:60 *419:io_in[32] 7.425 
*END

*D_NET *27 0.124114
*CONN
*P io_in[33] I
*I *419:io_in[33] I *D wrapped_rc4
*CAP
1 io_in[33] 0.00172372
2 *419:io_in[33] 0.00313779
3 *27:8 0.0136568
4 *27:7 0.0122428
5 *27:8 *313:13 0
6 *25:8 *27:8 0.0933525
*RES
1 io_in[33] *27:7 21.645 
2 *27:7 *27:8 166.05 
3 *27:8 *419:io_in[33] 36.675 
*END

*D_NET *28 0.437644
*CONN
*P io_in[34] I
*I *419:io_in[34] I *D wrapped_rc4
*CAP
1 io_in[34] 0.00461032
2 *419:io_in[34] 0.000263114
3 *28:11 0.00318433
4 *28:10 0.00292122
5 *28:8 0.0115005
6 *28:7 0.0115005
7 *28:5 0.00461032
8 *28:8 *90:11 0.148959
9 *28:11 *88:11 0
10 *28:11 *104:8 0.110351
11 *25:11 *28:11 0.129002
12 *26:56 *28:8 0.0107408
*RES
1 io_in[34] *28:5 46.665 
2 *28:5 *28:7 4.5 
3 *28:7 *28:8 218.43 
4 *28:8 *28:10 4.5 
5 *28:10 *28:11 186.75 
6 *28:11 *419:io_in[34] 6.885 
*END

*D_NET *29 0.443755
*CONN
*P io_in[35] I
*I *419:io_in[35] I *D wrapped_rc4
*CAP
1 io_in[35] 0.00207436
2 *419:io_in[35] 0.000369875
3 *29:17 0.00392649
4 *29:16 0.00355661
5 *29:14 0.00958999
6 *29:13 0.0127194
7 *29:10 0.00520373
8 *29:14 *30:57 0.00276191
9 *29:14 *106:8 0.0487937
10 *29:17 *95:8 0.0979174
11 *29:17 *105:8 0.182966
12 *29:17 *109:15 0.00415293
13 *29:17 *314:8 0.000517563
14 *10:74 *29:17 0.0551446
15 *22:11 *29:17 0.0110538
16 *26:8 *29:10 0.00300741
*RES
1 io_in[35] *29:10 37.935 
2 *29:10 *29:13 36.45 
3 *29:13 *29:14 128.79 
4 *29:14 *29:16 4.5 
5 *29:16 *29:17 301.59 
6 *29:17 *419:io_in[35] 7.785 
*END

*D_NET *30 1.18979
*CONN
*P io_in[36] I
*I *419:io_in[36] I *D wrapped_rc4
*CAP
1 io_in[36] 0.00324202
2 *419:io_in[36] 4.94185e-05
3 *30:66 0.00461192
4 *30:65 0.0045625
5 *30:63 0.0145445
6 *30:62 0.0151554
7 *30:57 0.00336652
8 *30:40 0.00471678
9 *30:31 0.00406117
10 *30:14 0.00534204
11 *30:14 *105:19 0.00263916
12 *30:31 *31:16 0.00015881
13 *30:40 *95:11 0.0149143
14 *30:40 *96:11 0.00509418
15 *30:57 *101:25 0
16 *30:57 *104:11 0